launcher/output/opflowout.m
function mpc = opflowout

%%-----  Power Flow Data  -----%%
%% system MVA base
mpc.baseMVA = 100;

%% OPF objective
mpc.obj = 72578.2965;

%% OPF convergence status
mpc.converged = 1;

%% bus data
%	bus_i	type	Pd	Qd	Gs	Bs	area	Vm	Va	baseKV	zone	Vmax	Vmin	mult_Pmis	mult_Qmis	Pslack	Qslack
mpc.bus = [
	1	1	0	0	0	0	1	1.07426292	-9.55382982	138	2	1.1	0.9	24.4313615	0.0677740589	0	0;
	2	1	42.8	11.41	0	0	1	1.07371691	-9.6175771	138	2	1.1	0.9	24.4411541	0.0703963385	0	0;
	3	1	0	0	0	0	1	1.07116585	-10.7047528	138	2	1.1	0.9	24.4677511	0.101107353	0	0;
	4	1	132.69	35.38	0	0	1	1.06913484	-10.9260477	138	2	1.1	0.9	24.5079222	0.111984807	0	0;
	5	1	0	0	0	0	1	1.07959489	-1.09866041	138	1	1.1	0.9	12.9397502	0.743137754	0	0;
	6	1	3.21	0.86	0	0	1	1.07954997	-1.10404798	138	1	1.1	0.9	12.9402959	0.743284002	0	0;
	7	1	0	0	0	0	1	1.09557244	-6.14906112	345	2	1.1	0.9	24.2095722	0.00778331484	0	0;
	8	1	0	0	0	0	1	1.09038646	-7.73380807	138	2	1.1	0.9	24.2135997	0.0229899123	0	0;
	9	2	0	0	0	0	1	1.09999999	-3.65174282	13.8	2	1.1	0.9	24.1905657	-5.2384278e-09	0	0;
	10	1	0	0	0	0	1	1.0811885	-12.2585219	138	2	1.1	0.9	24.5258951	0.0338111179	0	0;
	11	1	2.47	0.66	0	0	1	1.08115399	-12.2621854	138	2	1.1	0.9	24.5265813	0.0339945145	0	0;
	12	1	0	0	0	0	1	1.06265404	-12.8690273	138	1	1.1	0.9	24.4093339	0.137702899	0	0;
	13	1	37.16	9.91	0	0	1	1.06214316	-12.9250116	138	1	1.1	0.9	24.4196387	0.140461808	0	0;
	14	1	0	0	0	0	1	1.09295592	-3.03887412	345	1	1.1	0.9	23.7273679	0.0317824654	0	0;
	15	1	0	0	0	0	1	1.08648972	-5.36368037	138	1	1.1	0.9	23.7702555	0.0548465128	0	0;
	16	2	0	0	0	0	1	1.1	-0.501732507	13.8	1	1.1	0.9	23.6681394	-6.94421335e-10	0	0;
	17	3	0	0	0	0	1	1.10000001	0	13.8	1	1.1	0.9	23.6696006	-1.93718651e-09	0	0;
	18	2	0	0	0	0	1	1.09999997	0.794903233	13.8	1	1.1	0.9	23.6364303	-2.64999317e-08	0	0;
	19	1	0	0	0	0	1	1.08292544	-12.7292327	138	2	1.1	0.9	24.514401	0.0100235609	0	0;
	20	1	4.54	1.21	0	0	1	1.08285932	-12.737533	138	2	1.1	0.9	24.5154323	0.0102985827	0	0;
	21	1	0	0	0	0	1	1.07265715	-10.9643106	138	2	1.1	0.9	24.4475285	0.0565418817	0	0;
	22	1	148.7	39.65	0	0	1	1.07065826	-11.1881659	138	2	1.1	0.9	24.4852572	0.0667600847	0	0;
	23	1	0	0	0	0	1	1.08923626	-7.02474067	345	1	1.1	0.9	23.7752133	0.0369602143	0	0;
	24	1	0	0	0	0	1	1.07690322	-9.58081898	138	1	1.1	0.9	23.8619407	0.0743781744	0	0;
	25	1	2.28	0.61	0	0	1	1.07686968	-9.58472218	138	1	1.1	0.9	23.8625296	0.074535795	0	0;
	26	1	21.66	5.78	0	0	1	1.0765895	-9.61912678	138	1	1.1	0.9	23.8670666	0.0757497157	0	0;
	27	1	0	0	0	50	1	1.08457538	-14.6481339	138	1	1.1	0.9	25.1040746	-0.166074346	0	0;
	28	1	62.93	16.78	0	0	1	1.08356046	-14.764102	138	1	1.1	0.9	25.1218639	-0.161292316	0	0;
	29	1	0	0	0	0	1	1.07564561	-12.9371091	138	2	1.1	0.9	24.5467992	0.0582792187	0	0;
	30	1	99.97	26.66	0	0	1	1.07424993	-13.0924476	138	2	1.1	0.9	24.5733454	0.0654357213	0	0;
	31	1	0	0	0	100	1	1.1	-15.2098908	138	2	1.1	0.9	24.6952907	-0.130688724	0	0;
	32	1	9.76	2.6	0	0	1	1.09986344	-15.2249705	138	2	1.1	0.9	24.6977096	-0.130044207	0	0;
	33	1	0	0	0	0	1	1.07132568	-13.5204261	138	2	1.1	0.9	24.6215383	0.064286081	0	0;
	34	1	25	6.67	0	0	1	1.07097524	-13.5593459	138	2	1.1	0.9	24.628329	0.0661027798	0	0;
	35	1	0	0	0	0	1	1.08311536	-14.167972	138	2	1.1	0.9	24.6104395	0.00246296633	0	0;
	36	1	43.35	11.56	0	0	1	1.08255774	-14.228863	138	2	1.1	0.9	24.6210623	0.00530781604	0	0;
	37	1	0	0	0	0	1	1.07346259	-0.711404301	138	1	1.1	0.9	18.9140284	0.458298074	0	0;
	38	1	0.13	0.03	0	0	1	1.07346086	-0.71164327	138	1	1.1	0.9	18.9141435	0.458324629	0	0;
	39	1	0	0	0	0	1	1.09073066	-6.90876632	345	1	1.1	0.9	23.6911532	0.0332503612	0	0;
	40	1	0	0	0	0	1	1.08487463	-7.98216185	138	1	1.1	0.9	23.7127881	0.0413263767	0	0;
	41	1	57.99	15.46	0	0	1	1.08397569	-8.08824857	138	1	1.1	0.9	23.7277224	0.0453374616	0	0;
	42	1	0	0	0	0	1	1.089216	-12.1568024	138	2	1.1	0.9	24.4146211	0.00547417499	0	0;
	43	1	4.46	1.19	0	0	1	1.08915973	-12.1632093	138	2	1.1	0.9	24.4156186	0.00574043465	0	0;
	44	1	0	0	0	0	1	1.07969876	-8.67729031	138	2	1.1	0.9	24.3631313	0.0412027453	0	0;
	45	1	2.03	0.54	0	0	1	1.0796674	-8.68098856	138	2	1.1	0.9	24.3636829	0.0413495147	0	0;
	46	1	0	0	0	0	1	1.06970211	-11.6687654	138	1	1.1	0.9	24.0296503	0.117394057	0	0;
	47	1	43.41	11.58	0	0	1	1.0690827	-11.7403937	138	1	1.1	0.9	24.0409499	0.120423456	0	0;
	48	1	0	0	0	0	1	1.07570883	-15.7008172	138	1	1.1	0.9	24.7140975	0.0708277956	0	0;
	49	2	0	0	0	0	1	1.07744123	-15.5258317	13.8	1	1.1	0.9	24.7062896	0.0671931473	0	0;
	50	2	0	0	0	0	1	1.0777107	-15.4949198	13.8	1	1.1	0.9	24.705669	0.0669420606	0	0;
	51	1	0.35	0.09	0	0	1	1.07570362	-15.7014243	138	1	1.1	0.9	24.7142164	0.0708583763	0	0;
	52	1	23.39	6.24	0	0	1	1.07537984	-15.7376181	138	1	1.1	0.9	24.7203926	0.0725115561	0	0;
	53	1	0	0	0	0	1	1.08220575	-11.7597197	138	2	1.1	0.9	24.4631046	0.0383784563	0	0;
	54	1	34.81	9.28	0	0	1	1.08172393	-11.8087823	138	2	1.1	0.9	24.4730744	0.0410454314	0	0;
	55	1	0	0	0	0	1	1.08620501	-11.7441102	138	1	1.1	0.9	24.3878769	0.037242798	0	0;
	56	1	2.25	0.6	0	0	1	1.08617345	-11.7475402	138	1	1.1	0.9	24.3884828	0.0374044184	0	0;
	57	1	0	0	0	0	1	1.07824537	-8.56267115	345	1	1.1	0.9	24.1653913	0.0909897192	0	0;
	58	1	0	0	0	0	1	1.07175984	-11.0346873	138	1	1.1	0.9	24.2211929	0.101523031	0	0;
	59	1	140.94	37.58	0	0	1	1.06957987	-11.2941125	138	1	1.1	0.9	24.2591895	0.111838874	0	0;
	60	1	0	0	0	0	1	1.08196999	-8.47983	138	1	1.1	0.9	23.7485952	0.0525226358	0	0;
	61	1	0.2	0.05	0	0	1	1.08196739	-8.48016142	138	1	1.1	0.9	23.7486719	0.0525417976	0	0;
	62	1	0	0	0	0	1	1.07510439	-10.5676409	138	1	1.1	0.9	24.4439919	0.0831514415	0	0;
	63	1	0	0	0	0	1	1.07510439	-10.5676409	13.8	1	1.1	0.9	24.4439919	0.0831513111	0	0;
	64	1	34.78	9.27	0	0	1	1.07460756	-10.6210737	138	1	1.1	0.9	24.4538911	0.0857998008	0	0;
	65	1	0	0	0	0	1	1.09061538	-9.50271322	345	1	1.1	0.9	24.2989919	0.0284479792	0	0;
	66	1	0	0	0	0	1	1.08797187	-11.0008653	138	1	1.1	0.9	24.3256015	0.0354610837	0	0;
	67	1	4.57	1.22	0	0	1	1.08790643	-11.0079058	138	1	1.1	0.9	24.3268545	0.0357957333	0	0;
	68	1	0	0	0	0	1	1.07613395	-12.0146853	138	1	1.1	0.9	25.1419355	-0.175455114	0	0;
	69	1	16.96	4.52	0	0	1	1.07586036	-12.0467447	138	1	1.1	0.9	25.1466599	-0.174193184	0	0;
	70	1	0	0	0	0	1	1.06522814	-13.1510719	138	1	1.1	0.9	24.5285741	0.108330309	0	0;
	71	2	0	0	0	0	1	1.06591159	-13.061607	13.8	1	1.1	0.9	24.5264541	0.107517911	0	0;
	72	2	0	0	0	0	1	1.06632515	-13.0061163	13.8	1	1.1	0.9	24.5255027	0.107156713	0	0;
	73	2	0	0	0	0	1	1.06677097	-12.961799	13.8	1	1.1	0.9	24.5201855	0.105126493	0	0;
	74	1	0	0	0	0	1	1.09198692	-15.0566196	138	2	1.1	0.9	24.6945735	-0.076393035	0	0;
	75	1	5.3	1.41	0	0	1	1.09191545	-15.0647276	138	2	1.1	0.9	24.6958341	-0.0760574793	0	0;
	76	1	0	0	0	0	1	1.07292791	0.0699243175	138	1	1.1	0.9	17.4801817	0.548008118	0	0;
	77	1	6.95	1.85	0	0	1	1.07282574	0.0591031416	138	1	1.1	0.9	17.481869	0.54845758	0	0;
	78	1	0	0	0	0	1	1.08013666	-7.51020845	138	1	1.1	0.9	23.9545634	0.0887530186	0	0;
	79	1	0.38	0.1	0	0	1	1.08013144	-7.51078982	138	1	1.1	0.9	23.9546949	0.0887876116	0	0;
	80	1	0	0	0	0	1	1.09453274	-9.11810138	345	2	1.1	0.9	24.2925325	0.00985973305	0	0;
	81	1	0	0	0	0	1	1.09086494	-11.4083024	138	2	1.1	0.9	24.3419001	0.00912635061	0	0;
	82	2	0	0	0	0	1	1.09999994	-3.7553839	13.8	2	1.1	0.9	24.228556	-2.75403722e-08	0	0;
	83	1	0	0	0	0	1	1.06961934	-13.8601371	138	2	1.1	0.9	24.6634451	0.0728148045	0	0;
	84	1	61.41	16.38	0	0	1	1.06869064	-13.967403	138	2	1.1	0.9	24.6806593	0.0774409169	0	0;
	85	1	0	0	0	0	1	1.09225792	-14.1500975	138	2	1.1	0.9	24.6168772	-0.0640429785	0	0;
	86	1	17.59	4.69	0	0	1	1.09198518	-14.1815913	138	2	1.1	0.9	24.6215395	-0.0627971325	0	0;
	87	1	0	0	0	0	1	1.06194344	0.718489094	138	1	1.1	0.9	4.79368505	-0.195007514	0	0;
	88	1	5.25	1.4	0	0	1	1.06186557	0.709411809	138	1	1.1	0.9	4.79390011	-0.19495013	0	0;
	89	1	0	0	0	0	1	1.08291184	-9.87949105	138	2	1.1	0.9	24.34431	0.046634311	0	0;
	90	1	5.9	1.57	0	0	1	1.08282561	-9.89020542	138	2	1.1	0.9	24.3456863	0.0470008102	0	0;
	91	1	0	0	0	0	1	1.07765032	-6.73342805	138	1	1.1	0.9	23.9009532	0.0853201204	0	0;
	92	1	65.03	17.34	0	0	1	1.07672032	-6.84467644	138	1	1.1	0.9	23.9166423	0.089536196	0	0;
	93	1	0	0	0	0	1	1.07057957	-5.67335169	138	2	1.1	0.9	25.2473075	-0.322784642	0	0;
	94	1	5.21	1.39	0	0	1	1.07051087	-5.6815251	138	2	1.1	0.9	25.2484431	-0.32248151	0	0;
	95	1	0	0	0	0	1	1.07802981	-6.70561996	138	1	1.1	0.9	23.9079844	0.0824925873	0	0;
	96	1	34	9.07	0	0	1	1.07757792	-6.75765281	138	1	1.1	0.9	23.9160256	0.0846455256	0	0;
	97	1	0	0	0	0	1	1.08157731	-16.0489303	138	1	1.1	0.9	24.7345324	0.0438862979	0	0;
	98	1	37.09	9.89	0	0	1	1.08101661	-16.1186208	138	1	1.1	0.9	24.7435791	0.0463103932	0	0;
	99	1	0	0	0	0	1	1.08379454	-8.11452807	138	1	1.1	0.9	23.8851	0.0284903299	0	0;
	100	1	13.52	3.61	0	0	1	1.0835935	-8.13727166	138	1	1.1	0.9	23.8886668	0.0294442114	0	0;
	101	1	0.89	0.24	0	0	1	1.0837815	-8.11587628	138	1	1.1	0.9	23.885363	0.0285612642	0	0;
	102	1	0	0	0	0	1	1.07479829	-14.7225361	138	1	1.1	0.9	24.6438797	0.0780864021	0	0;
	103	1	38.8	10.35	0	0	1	1.07420242	-14.7939759	138	1	1.1	0.9	24.6542614	0.0808696041	0	0;
	104	1	0	0	0	0	1	1.08566583	-15.5545038	138	2	1.1	0.9	24.7344025	-0.0454372682	0	0;
	105	1	80.33	21.42	0	0	1	1.08442316	-15.6941284	138	2	1.1	0.9	24.7569228	-0.0393733987	0	0;
	106	1	0	0	0	0	1	1.08511612	-13.1776231	138	2	1.1	0.9	24.5346727	-0.00154108803	0	0;
	107	1	16.01	4.27	0	0	1	1.08490499	-13.2014092	138	2	1.1	0.9	24.53851	-0.000515945734	0	0;
	108	1	0	0	0	0	1	1.07738707	-8.94384545	138	1	1.1	0.9	23.8570877	0.0640864095	0	0;
	109	1	47.58	12.69	0	0	1	1.07674083	-9.01045577	138	1	1.1	0.9	23.8701349	0.0675824518	0	0;
	110	1	0	0	0	50	1	1.09363412	-4.3340206	138	1	1.1	0.9	15.9708954	0.666312914	0	0;
	111	1	62.29	16.61	0	0	1	1.09276822	-4.44055791	138	1	1.1	0.9	15.9822573	0.669365261	0	0;
	112	1	0	0	0	0	1	1.07838837	-12.2451408	138	2	1.1	0.9	24.4895298	0.0355812483	0	0;
	113	1	45.99	12.26	0	0	1	1.07775803	-12.3119625	138	2	1.1	0.9	24.50211	0.0389505861	0	0;
	114	1	0	0	0	0	1	1.08533291	-14.5269167	138	2	1.1	0.9	24.640764	-0.0179891337	0	0;
	115	1	5.06	1.35	0	0	1	1.08526751	-14.5348545	138	2	1.1	0.9	24.6418329	-0.0177037927	0	0;
	116	1	3.1	0.83	0	0	1	1.0852924	-14.5318563	138	2	1.1	0.9	24.6414175	-0.017814094	0	0;
	117	1	0	0	0	0	1	1.07330941	-12.3495591	138	1	1.1	0.9	24.5196687	0.0645950654	0	0;
	118	1	8.83	2.36	0	0	1	1.07317252	-12.3657294	138	1	1.1	0.9	24.5220918	0.0652434144	0	0;
	119	1	0	0	0	0	1	1.05834126	-13.608835	138	1	1.1	0.9	24.4633	0.149200248	0	0;
	120	1	31.65	8.44	0	0	1	1.05793052	-13.6559778	138	1	1.1	0.9	24.4712525	0.151327915	0	0;
	121	1	0	0	0	0	1	1.0793794	-12.3954665	138	2	1.1	0.9	24.5322409	0.0499113383	0	0;
	122	1	53.36	14.23	0	0	1	1.07859587	-12.4925783	138	2	1.1	0.9	24.5449106	0.0533131052	0	0;
	123	1	0	0	0	0	1	1.09321549	-3.35172691	345	1	1.1	0.9	23.7482821	0.0295723427	0	0;
	124	1	0	0	0	0	1	1.09132116	-3.97409998	138	1	1.1	0.9	23.7264777	0.0316965344	0	0;
	125	1	0	0	0	0	1	1.09321549	-3.35172691	13.8	1	1.1	0.9	23.7482821	0.0295722112	0	0;
	126	1	0	0	0	0	1	1.09321549	-3.35172691	13.8	1	1.1	0.9	23.7482821	0.0295722719	0	0;
	127	2	0	0	0	0	1	1.09999997	0.346065378	13.8	1	1.1	0.9	23.7218082	-3.22531562e-08	0	0;
	128	2	0	0	0	0	1	1.1	-2.13183065	13.8	1	1.1	0.9	23.7371464	1.19508164e-07	0	0;
	129	1	0	0	0	0	1	1.05586535	-14.059944	138	1	1.1	0.9	24.527094	0.156949887	0	0;
	130	1	103.24	27.53	0	0	1	1.05433665	-14.2212029	138	1	1.1	0.9	24.5598557	0.165784961	0	0;
	131	1	0	0	0	0	1	1.08241286	-8.36534012	138	1	1.1	0.9	23.7441376	0.0506541066	0	0;
	132	1	25.2	6.72	0	0	1	1.08203132	-8.40769316	138	1	1.1	0.9	23.7510967	0.0525153741	0	0;
	133	1	0	0	0	0	1	1.07879196	-6.66940425	138	1	1.1	0.9	23.9004388	0.0799837227	0	0;
	134	1	42.65	11.37	0	0	1	1.07826253	-6.73128693	138	1	1.1	0.9	23.9096523	0.0824505931	0	0;
	135	1	0	0	0	0	1	1.08078947	-10.0567101	138	2	1.1	0.9	24.3897005	0.0593582169	0	0;
	136	1	26.76	7.14	0	0	1	1.08041127	-10.1028441	138	2	1.1	0.9	24.3959404	0.0610285095	0	0;
	137	1	0	0	0	0	1	1.07465393	-12.4595238	138	1	1.1	0.9	24.5666907	0.0528686522	0	0;
	138	1	78.71	20.99	0	0	1	1.07350229	-12.601806	138	1	1.1	0.9	24.5856307	0.0579698723	0	0;
	139	1	0	0	0	0	1	1.07925725	-8.95381284	138	1	1.1	0.9	23.7954495	0.0665211263	0	0;
	140	1	0.26	0.07	0	0	1	1.07925374	-8.95419914	138	1	1.1	0.9	23.7955593	0.0665506922	0	0;
	141	1	0	0	0	50	1	1.06206675	-2.18169178	138	1	1.1	0.9	37.9037969	-2.99570309	0	0;
	142	1	161.34	43.02	0	0	1	1.05962202	-2.44732287	138	1	1.1	0.9	37.949264	-2.98335359	0	0;
	143	1	0	0	0	0	1	1.07871096	5.82207853	138	1	1.1	0.9	8.17231736	0.0693483224	0	0;
	144	2	0	0	0	0	1	1.1	16.9965544	13.8	1	1.1	0.9	8.09348154	6.03400365e-09	0	0;
	145	2	0	0	0	0	1	1.1	8.20572429	13.8	1	1.1	0.9	8.14299999	1.4981203e-08	0	0;
	146	1	0	0	0	0	1	1.0890905	-6.9875199	345	2	1.1	0.9	24.2923753	0.00445159777	0	0;
	147	1	0	0	0	0	1	1.07607318	-7.59289677	138	2	1.1	0.9	24.6958904	-0.102657423	0	0;
	148	1	57.42	15.31	0	0	1	1.07519428	-7.70029357	138	2	1.1	0.9	24.7100416	-0.0988558506	0	0;
	149	1	0	0	0	0	1	1.08773666	-12.2338707	138	2	1.1	0.9	24.4247901	0.0155781399	0	0;
	150	1	1.5	0.4	0	0	1	1.0877137	-12.2364216	138	2	1.1	0.9	24.4252175	0.0156921064	0	0;
	151	1	0	0	0	0	1	1.09018875	-7.11757388	345	1	1.1	0.9	23.7560384	0.0340268714	0	0;
	152	1	0	0	0	70	1	1.09141589	-9.24741975	138	1	1.1	0.9	23.7929623	0.0379020897	0	0;
	153	1	93.15	24.84	0	0	1	1.09025194	-9.38067418	138	1	1.1	0.9	23.8128834	0.043264023	0	0;
	154	1	0	0	0	0	1	1.07403457	-9.7249736	138	1	1.1	0.9	23.8503705	0.0871234787	0	0;
	155	1	66.84	17.82	0	0	1	1.07320216	-9.82009219	138	1	1.1	0.9	23.8654342	0.0911663447	0	0;
	156	1	0	0	0	0	1	1.05566281	-12.9329147	138	1	1.1	0.9	24.1662243	0.165080596	0	0;
	157	1	105.45	28.12	0	0	1	1.05410528	-13.1185931	138	1	1.1	0.9	24.1947472	0.172785773	0	0;
	158	1	0	0	0	0	1	1.07635965	-12.0048087	138	2	1.1	0.9	24.4969135	0.060336299	0	0;
	159	1	22.85	6.09	0	0	1	1.07601253	-12.0467786	138	2	1.1	0.9	24.5028183	0.0619146672	0	0;
	160	1	0	0	0	0	1	1.08381485	-13.4274157	138	2	1.1	0.9	24.5443831	0.01233221	0	0;
	161	1	25.95	6.92	0	0	1	1.08345348	-13.4707156	138	2	1.1	0.9	24.5504371	0.0139515113	0	0;
	162	1	0	0	0	0	1	1.08917703	-6.9524073	345	2	1.1	0.9	24.2734619	0.00849953873	0	0;
	163	1	0	0	0	0	1	1.08564653	-7.64757228	138	2	1.1	0.9	24.2809874	0.0131747826	0	0;
	164	1	98.15	26.17	0	0	1	1.08409008	-7.82979608	138	2	1.1	0.9	24.3074523	0.020321424	0	0;
	165	1	0	0	0	0	1	1.09332774	-3.0368022	345	1	1.1	0.9	23.723722	0.0291944316	0	0;
	166	1	0	0	0	0	1	1.08875584	-4.42783747	138	1	1.1	0.9	23.7294117	0.0430033975	0	0;
	167	2	0	0	0	0	1	1.09999999	-1.05530009	13.8	1	1.1	0.9	23.6868765	2.20413672e-09	0	0;
	168	2	0	0	0	0	1	1.09999998	0.233219655	13.8	1	1.1	0.9	23.6996751	-2.28457528e-08	0	0;
	169	2	0	0	0	0	1	1.09999999	1.67815114	13.8	1	1.1	0.9	23.6674334	-1.99094745e-08	0	0;
	170	1	0	0	0	0	1	1.07763464	-6.82751592	138	1	1.1	0.9	23.9184714	0.0834503834	0	0;
	171	1	12.38	3.3	0	0	1	1.07746002	-6.84973593	138	1	1.1	0.9	23.9211561	0.0841671394	0	0;
	172	1	0	0	0	0	1	1.0704968	-11.3524754	138	1	1.1	0.9	24.9538777	-0.0714924573	0	0;
	173	1	3.14	0.84	0	0	1	1.07045241	-11.3571123	138	1	1.1	0.9	24.9547913	-0.0712479763	0	0;
	174	1	7.3	1.95	0	0	1	1.07040146	-11.3629969	138	1	1.1	0.9	24.9557142	-0.0710015253	0	0;
	175	1	0	0	0	0	1	1.08498218	-3.0503138	345	1	1.1	0.9	23.3201057	0.0762167892	0	0;
	176	1	0	0	0	0	1	1.074984	-2.31600001	138	1	1.1	0.9	21.8536112	0.151791063	0	0;
	177	1	8.78	2.34	0	0	1	1.07485903	-2.33124054	138	1	1.1	0.9	21.8555467	0.152307433	0	0;
	178	1	6.81	1.82	0	0	1	1.07488721	-2.3260399	138	1	1.1	0.9	21.8554309	0.152277728	0	0;
	179	1	0	0	0	0	1	1.07061882	-13.0851576	138	2	1.1	0.9	24.5936727	0.0805063246	0	0;
	180	1	14.14	3.77	0	0	1	1.07041076	-13.1071929	138	2	1.1	0.9	24.5979517	0.0816489626	0	0;
	181	1	0	0	0	60	1	1.08894168	-15.8741105	138	1	1.1	0.9	24.715526	0.0139945257	0	0;
	182	1	82.61	22.03	0	0	1	1.08770669	-16.0158422	138	1	1.1	0.9	24.7373882	0.0198825671	0	0;
	183	1	0	0	0	0	1	1.08932519	-5.88371861	138	1	1.1	0.9	19.2559235	0.364366791	0	0;
	184	1	30.18	8.05	0	0	1	1.08895232	-5.92545954	138	1	1.1	0.9	19.2617952	0.365937536	0	0;
	185	1	0	0	0	0	1	1.07706652	-8.21967901	138	1	1.1	0.9	24.0353812	0.0863995493	0	0;
	186	1	45.35	12.09	0	0	1	1.07648472	-8.28503165	138	1	1.1	0.9	24.0461638	0.0892872758	0	0;
	187	1	0	0	0	0	1	1.08230156	-10.2210258	138	2	1.1	0.9	24.362787	0.0464742102	0	0;
	188	1	11.05	2.95	0	0	1	1.08214737	-10.2370598	138	2	1.1	0.9	24.3658958	0.0473050657	0	0;
	189	1	0	0	0	0	1	1.09518707	-15.3136347	138	2	1.1	0.9	24.7107273	-0.101647985	0	0;
	190	1	14.07	3.75	0	0	1	1.09499527	-15.3326325	138	2	1.1	0.9	24.7146579	-0.100599004	0	0;
	191	1	0	0	0	0	1	1.08561353	-14.0578931	138	2	1.1	0.9	24.5993376	-0.0118473895	0	0;
	192	1	16.44	4.38	0	0	1	1.08535789	-14.0865265	138	2	1.1	0.9	24.6040224	-0.0105967477	0	0;
	193	1	0	0	0	0	1	1.07984663	-12.6835654	138	2	1.1	0.9	24.5188487	0.0248688641	0	0;
	194	1	28.69	7.65	0	0	1	1.07939175	-12.7345678	138	2	1.1	0.9	24.5273015	0.0271308066	0	0;
	195	1	0	0	0	0	1	1.08967707	-6.97968978	345	2	1.1	0.9	24.2796423	0.00845272906	0	0;
	196	1	0	0	0	0	1	1.08150598	-8.98858451	138	2	1.1	0.9	24.287472	0.0217320542	0	0;
	197	2	0	0	0	0	1	1.09999982	-2.63416576	13.8	2	1.1	0.9	24.2075692	-5.66238106e-09	0	0;
	198	2	0	0	0	0	1	1.09999968	-4.82368516	13.8	2	1.1	0.9	24.2469012	2.44098413e-08	0	0;
	199	1	86.39	23.04	0	0	1	1.08024248	-9.12107632	138	2	1.1	0.9	24.3125137	0.0284726664	0	0;
	200	1	0	0	0	0	1	1.0817356	-8.32266372	138	2	1.1	0.9	24.3355061	0.0312760326	0	0;
...
];

%% generator data
%	bus	Pg	Qg	Qmax	Qmin	Vg	mBase	status	Pmax	Pmin	Pc1	Pc2	Qc1min	Qc1max	Qc2min	Qc2max	ramp_agc	ramp_10	ramp_30	ramp_q	apf	pgs
mpc.gen = [
	9	771.800007	81.5239534	359.66	-94.16	1.09999999	926.16	1	771.8	231.54	0	0	0	0	0	0	3	30	90	0	0.0870747378	771.8;
	16	444.450004	62.2138221	163.56	-36.44	1.1	533.34	1	444.45	133.33	0	0	0	0	0	0	20	200	600	0	0.0501429998	444.45;
	17	888.900009	111.715866	327.12	-72.89	1.10000001	1066.68	1	888.9	266.67	0	0	0	0	0	0	20	200	600	0	0.100286	888.9;
	18	157.600001	16.0422831	58	-12.92	1.09999997	189.12	1	157.6	47.28	0	0	0	0	0	0	20	200	600	0	0.0177804855	157.6;
	49	1.30000056	0.609963682	0.61	-0.16	1.07744123	1.56	1	1.3	0.39	0	0	0	0	0	0	3	30	90	0	0.000146666441	1.3;
	50	2.60000056	1.20996387	1.21	-0.32	1.0777107	3.12	1	2.6	0.78	0	0	0	0	0	0	3	30	90	0	0.000293332882	2.6;
	63	0	0	1.63	-0.36	1.07510439	3.84	0	3.2	0.96	0	0	0	0	0	0	35	350	1050	0	0	2.08;
	71	4.0000009	1.53997786	1.54	-0.2	1.06591159	4.8	1	4	1.2	0	0	0	0	0	0	150	1500	4500	0	0.000451281357	4;
	72	2.0000009	0.769977672	0.77	-0.1	1.06632515	2.4	1	2	0.6	0	0	0	0	0	0	150	1500	4500	0	0.000225640679	2;
	73	1.4000009	0.539977115	0.54	-0.07	1.06677097	1.68	1	1.4	0.42	0	0	0	0	0	0	150	1500	4500	0	0.000157948475	1.4;
	82	361.900004	31.2483534	138.97	-17.73	1.09999994	434.28	1	361.9	108.57	0	0	0	0	0	0	150	1500	4500	0	0.0408296808	361.9;
	125	0	0	62.21	-7.94	1.09321549	194.4	0	162	48.6	0	0	0	0	0	0	150	1500	4500	0	0	105.3;
	126	0	0	62.21	-7.94	1.09321549	194.4	0	162	48.6	0	0	0	0	0	0	150	1500	4500	0	0	105.3;
	127	162.000002	19.5135434	62.21	-7.94	1.09999997	194.4	1	162	48.6	0	0	0	0	0	0	150	1500	4500	0	0.018276895	162;
	128	162.000002	47.1691785	62.21	-7.94	1.1	194.4	1	162	48.6	0	0	0	0	0	0	150	1500	4500	0	0.018276895	162;
	144	602.550004	107.922381	221.74	-49.41	1.1	723.06	1	602.55	180.76	0	0	0	0	0	0	20	200	600	0	0.0679798954	602.55;
	145	297.632922	134.562182	221.74	-49.41	1.1	723.06	1	602.55	180.76	0	0	0	0	0	0	20	200	600	0	0.0679798954	300.55;
	167	193.500002	33.2068433	74.3	-9.48	1.09999999	232.2	1	193.5	58.05	0	0	0	0	0	0	150	1500	4500	0	0.0218307356	193.5;
	168	193.500002	24.6167782	74.3	-9.48	1.09999998	232.2	1	193.5	58.05	0	0	0	0	0	0	150	1500	4500	0	0.0218307356	193.5;
	169	387.000004	39.3073565	148.61	-18.96	1.09999999	464.4	1	387	116.1	0	0	0	0	0	0	150	1500	4500	0	0.0436614713	387;
	197	293.600002	42.0349323	136.82	-35.82	1.09999982	352.32	1	293.6	88.08	0	0	0	0	0	0	3	30	90	0	0.0331240516	293.6;
	198	207.300002	52.1886412	96.6	-25.29	1.09999968	248.76	1	207.3	62.19	0	0	0	0	0	0	3	30	90	0	0.0233876563	207.3;
	222	5.2000009	-0.249327996	2	-0.25	1.08639913	6.24	1	5.2	1.56	0	0	0	0	0	0	150	1500	4500	0	0.000586665764	5.2;
	223	18.0000009	-0.87933641	6.91	-0.88	1.08626304	21.6	1	18	5.4	0	0	0	0	0	0	150	1500	4500	0	0.00203076611	18;
	224	511.200005	-16.8801699	196.3	-25.05	1.08422183	613.44	1	511.2	153.36	0	0	0	0	0	0	150	1500	4500	0	0.0576737574	511.2;
	225	514.800005	-25.2290775	197.68	-25.23	1.08501036	617.76	1	514.8	154.44	0	0	0	0	0	0	150	1500	4500	0	0.0580799106	514.8;
	231	2.90000053	1.34996528	1.35	-0.35	1.08636422	3.48	1	2.9	0.87	0	0	0	0	0	0	3	30	90	0	0.000327178984	2.9;
	248	0	0	67.8	-14.79	1.09269912	159.84	0	133.2	39.96	0	0	0	0	0	0	35	350	1050	0	0	86.58;
	249	0	0	67.8	-14.79	1.09269912	159.84	0	133.2	39.96	0	0	0	0	0	0	35	350	1050	0	0	86.58;
	250	0	0	271.2	-59.14	1.09269912	639.36	0	532.8	159.84	0	0	0	0	0	0	35	350	1050	0	0	346.32;
	254	0	0	1.91	-0.5	1.06153021	4.92	0	4.1	1.23	0	0	0	0	0	0	3	30	90	0	0	2.665;
	255	0	0	1.54	-0.4	1.06153021	3.96	0	3.3	0.99	0	0	0	0	0	0	3	30	90	0	0	2.145;
	256	0	0	1.35	-0.35	1.06153021	3.48	0	2.9	0.87	0	0	0	0	0	0	3	30	90	0	0	1.885;
	257	0	0	2.52	-0.66	1.06153021	6.48	0	5.4	1.62	0	0	0	0	0	0	3	30	90	0	0	3.51;
	258	1.10000054	0.509982536	0.51	-0.13	1.06286782	1.32	1	1.1	0.33	0	0	0	0	0	0	3	30	90	0	0.000124102373	1.1;
	264	0	0	19.95	-4.35	1.09105475	47.04	0	39.2	11.76	0	0	0	0	0	0	35	350	1050	0	0	25.48;
	265	0	0	5.4	-1.18	1.09105475	12.72	0	10.6	3.18	0	0	0	0	0	0	35	350	1050	0	0	6.89;
	275	0	0	51.51	-11.23	1.09174029	121.44	0	101.2	30.36	0	0	0	0	0	0	35	350	1050	0	0	65.78;
	301	2.90000084	-0.34999998	1.35	-0.35	1.06517298	3.48	1	2.9	0.87	0	0	0	0	0	0	3	30	90	0	0.000327178984	2.9;
	302	2.90000084	-0.34999998	1.35	-0.35	1.06521595	3.48	1	2.9	0.87	0	0	0	0	0	0	3	30	90	0	0.000327178984	2.9;
	305	1.0000009	0.379984726	0.38	-0.05	1.05877086	1.2	1	1	0.3	0	0	0	0	0	0	150	1500	4500	0	0.000112820339	1;
	306	2.4000009	0.919984987	0.92	-0.12	1.05893871	2.88	1	2.4	0.72	0	0	0	0	0	0	150	1500	4500	0	0.000270768814	2.4;
	319	42.3000009	-2.06998031	16.24	-2.07	1.07011328	50.76	1	42.3	12.69	0	0	0	0	0	0	150	1500	4500	0	0.00477230035	42.3;
	350	15.0000009	5.75986561	5.76	-0.74	1.08781706	18	1	15	4.5	0	0	0	0	0	0	150	1500	4500	0	0.00169230509	15;
	351	6.2000009	2.37988093	2.38	-0.3	1.08564762	7.44	1	6.2	1.86	0	0	0	0	0	0	150	1500	4500	0	0.000699486103	6.2;
	352	14.4000009	5.52986153	5.53	-0.71	1.08772584	17.28	1	14.4	4.32	0	0	0	0	0	0	150	1500	4500	0	0.00162461289	14.4;
	353	74.0000009	23.6892251	28.42	-3.63	1.09999934	88.8	1	74	22.2	0	0	0	0	0	0	150	1500	4500	0	0.0083487051	74;
	361	0	0	0.81	-0.18	1.06893198	1.92	0	1.6	0.48	0	0	0	0	0	0	35	350	1050	0	0	1.04;
	362	0	0	5.6	-1.22	1.06893198	13.2	0	11	3.3	0	0	0	0	0	0	35	350	1050	0	0	7.15;
	363	0	0	1.63	-0.36	1.06893198	3.84	0	3.2	0.96	0	0	0	0	0	0	35	350	1050	0	0	2.08;
	388	0	0	5.09	-1.11	1.09043448	12	0	10	3	0	0	0	0	0	0	35	350	1050	0	0	6.5;
	389	0	0	88.23	-19.24	1.09043448	208	0	173.33	52	0	0	0	0	0	0	35	350	1050	0	0	112.665;
	390	0	0	88.23	-19.24	1.09043448	208	0	173.33	52	0	0	0	0	0	0	35	350	1050	0	0	112.665;
	391	0	0	88.23	-19.24	1.09043448	208	0	173.33	52	0	0	0	0	0	0	35	350	1050	0	0	112.665;
	392	0	0	59.25	-12.92	1.09043448	139.68	0	116.4	34.92	0	0	0	0	0	0	35	350	1050	0	0	75.66;
	393	0	0	59.25	-12.92	1.09043448	139.68	0	116.4	34.92	0	0	0	0	0	0	35	350	1050	0	0	75.66;
	394	0	0	59.25	-12.92	1.09043448	139.68	0	116.4	34.92	0	0	0	0	0	0	35	350	1050	0	0	75.66;
	395	0	0	59.25	-12.92	1.09043448	139.68	0	116.4	34.92	0	0	0	0	0	0	35	350	1050	0	0	75.66;
	396	0	0	59.25	-12.92	1.09043448	139.68	0	116.4	34.92	0	0	0	0	0	0	35	350	1050	0	0	75.66;
	409	0	0	50.9	-11.1	1.09472556	120	0	100	30	0	0	0	0	0	0	35	350	1050	0	0	65;
	410	72.4990811	6.19267046	69.71	-15.2	1.09692231	164.34	1	136.95	41.08	0	0	0	0	0	0	35	350	1050	0	0.0154507455	77.97;
	411	73.2959164	8.39854268	69.71	-15.2	1.09651924	164.34	1	136.95	41.08	0	0	0	0	0	0	35	350	1050	0	0.0154507455	79.43;
	412	73.0041042	7.07335376	69.71	-15.2	1.09644938	164.34	1	136.95	41.08	0	0	0	0	0	0	35	350	1050	0	0.0154507455	79.43;
	413	70.4803969	3.76978511	69.71	-15.2	1.09616647	164.34	1	136.95	41.08	0	0	0	0	0	0	35	350	1050	0	0.0154507455	60.26;
	414	0	0	56.55	-12.33	1.09472556	133.32	0	111.1	33.33	0	0	0	0	0	0	35	350	1050	0	0	72.215;
	430	1.0000009	0.379904535	0.38	-0.05	1.09262321	1.2	1	1	0.3	0	0	0	0	0	0	150	1500	4500	0	0.000112820339	1;
	431	3.3000009	1.26990934	1.27	-0.16	1.0928259	3.96	1	3.3	0.99	0	0	0	0	0	0	150	1500	4500	0	0.00037230712	3.3;
	432	1.2000009	0.45990619	0.46	-0.06	1.09252772	1.44	1	1.2	0.36	0	0	0	0	0	0	150	1500	4500	0	0.000135384407	1.2;
	433	6.7000009	2.56990835	2.57	-0.33	1.09456257	8.04	1	6.7	2.01	0	0	0	0	0	0	150	1500	4500	0	0.000755896273	6.7;
	434	4.3000009	1.64990976	1.65	-0.21	1.09274488	5.16	1	4.3	1.29	0	0	0	0	0	0	150	1500	4500	0	0.000485127459	4.3;
	435	0	0	75.65	-9.65	1.0923916	236.4	0	197	59.1	0	0	0	0	0	0	150	1500	4500	0	0	128.05;
	436	0	0	75.65	-9.65	1.0923916	236.4	0	197	59.1	0	0	0	0	0	0	150	1500	4500	0	0	128.05;
	437	197.000002	46.8583695	75.65	-9.65	1.09999999	236.4	1	197	59.1	0	0	0	0	0	0	150	1500	4500	0	0.0222256068	197;
	438	197.000002	35.3182769	75.65	-9.65	1.09999999	236.4	1	197	59.1	0	0	0	0	0	0	150	1500	4500	0	0.0222256068	197;
	439	197.000002	58.3449283	75.65	-9.65	1.1	236.4	1	197	59.1	0	0	0	0	0	0	150	1500	4500	0	0.0222256068	197;
	442	0	0	54.97	-11.99	1.08209241	129.6	0	108	32.4	0	0	0	0	0	0	35	350	1050	0	0	70.2;
	443	0	0	89.07	-19.43	1.08209241	210	0	175	52.5	0	0	0	0	0	0	35	350	1050	0	0	113.75;
	444	0	0	1.68	-0.37	1.08209241	3.96	0	3.3	0.99	0	0	0	0	0	0	35	350	1050	0	0	2.145;
	455	66.8500033	48.7326584	113.42	-24.73	1.09999989	267.4	1	222.83	66.85	0	0	0	0	0	0	35	350	1050	0	0.0251397562	66.85;
	456	133.7	48.0015709	226.84	-49.47	1.09999994	534.8	1	445.67	133.7	0	0	0	0	0	0	35	350	1050	0	0.0502806406	133.7;
	458	109.600001	0	0	0	1.08570545	131.52	1	109.6	0	0	0	0	0	0	0	200	2000	6000	0	0.0123651092	109.6;
	463	0	0	3.36	-0.88	1.08128952	8.64	0	7.2	2.16	0	0	0	0	0	0	3	30	90	0	0	4.68;
	480	56.0000009	8.03841658	21.5	-2.74	1.09999971	67.2	1	56	16.8	0	0	0	0	0	0	150	1500	4500	0	0.006317939	56;
	481	45.0000009	10.347709	17.28	-2.21	1.09999984	54	1	45	13.5	0	0	0	0	0	0	150	1500	4500	0	0.00507691527	45;
	482	45.0000009	17.0963585	17.28	-2.21	1.0999999	54	1	45	13.5	0	0	0	0	0	0	150	1500	4500	0	0.00507691527	45;
	483	24.0000009	5.29058655	9.22	-1.18	1.09999948	28.8	1	24	7.2	0	0	0	0	0	0	150	1500	4500	0	0.00270768814	24;
	484	28.0000009	10.1989753	10.75	-1.37	1.09999983	33.6	1	28	8.4	0	0	0	0	0	0	150	1500	4500	0	0.0031589695	28;
	494	0	0	2.7	-0.71	1.07288679	6.96	0	5.8	1.74	0	0	0	0	0	0	3	30	90	0	0	3.77;
	497	60.0000007	-2.93993019	23.04	-2.94	1.06785077	72	1	60	18	0	0	0	0	0	0	150	1500	4500	0	0.00676922036	60;
	498	18.0000007	-0.879930411	6.91	-0.88	1.06894865	21.6	1	18	5.4	0	0	0	0	0	0	150	1500	4500	0	0.00203076611	18;
];

%% branch data
%	fbus	tbus	r	x	b	rateA	rateB	rateC	ratio	angle	status	angmin	angmax	Pf	Qf	Pt	Qt
mpc.branch = [
	1	2	0.000531	0.00314	0	76.5	0	0	1	0	1	0	0	42.8090	11.4634	-42.8000	-11.4100;
	1	44	0.005479	0.050257	0.01781	320.29	0	0	1	0	1	0	0	-36.1141	-8.4398	36.1786	6.9659;
	1	421	0.005369	0.051555	0.01664	320.29	0	0	1	0	1	0	0	-6.6950	-3.0236	6.6973	1.1229;
	3	4	0.000692	0.003518	0	225.06	0	0	1	0	1	0	0	132.8042	35.9604	-132.6900	-35.3800;
	3	62	0.002718	0.026098	0.00842	320.29	0	0	1	0	1	0	0	-12.1106	-15.3745	12.1193	14.4886;
	3	479	0.007258	0.069699	0.0225	320.29	0	0	1	0	1	0	0	-120.6936	-20.5859	121.6386	27.0220;
	5	6	0.000556	0.003563	0	4.49	0	0	1	0	1	0	0	3.2101	0.8603	-3.2100	-0.8600;
	5	316	0.002445	0.02348	0.00758	320.29	0	0	1	0	1	0	0	116.4236	-35.8213	-116.1130	37.9162;
	5	401	0.004886	0.04692	0.01515	320.29	0	0	1	0	1	0	0	-119.6337	34.9609	120.2875	-30.4335;
	7	8	0.000355	0.0129	0	567	0	0	1	0	1	0	0	257.2172	40.5071	-257.0167	-33.2201;
	7	9	0.00012	0.01362	0	680	0	0	1	0	1	0	0	-385.7507	-23.8124	385.9000	40.7620;
	7	9	0.00012	0.01362	0	680	0	0	1	0	1	0	0	-385.7507	-23.8124	385.9000	40.7620;
	7	232	0.001119	0.014808	0.31205	1493.89	0	0	1	0	1	0	0	229.5250	0.5149	-229.0304	-31.2706;
	7	262	0.000947	0.013749	0.23994	1493.89	0	0	1	0	1	0	0	284.7592	6.6028	-284.1159	-25.9448;
	8	287	0.003727	0.035786	0.01155	320.29	0	0	1	0	1	0	0	198.2505	14.9214	-197.0108	-4.3789;
	8	457	0.001974	0.018955	0.00612	320.29	0	0	1	0	1	0	0	58.7662	18.2987	-58.7031	-18.4173;
	10	11	0.000655	0.003201	0	3.96	0	0	1	0	1	0	0	2.4700	0.6602	-2.4700	-0.6600;
	10	342	0.002825	0.027123	0.00876	320.29	0	0	1	0	1	0	0	52.9269	13.8086	-52.8542	-14.1304;
	10	349	0.001402	0.01346	0.00434	320.29	0	0	1	0	1	0	0	-55.3969	-14.4688	55.4361	14.3369;
	12	13	0.000623	0.003134	0	65.5	0	0	1	0	1	0	0	37.1682	9.9511	-37.1600	-9.9100;
	12	216	0.003962	0.038048	0.01228	320.29	0	0	1	0	1	0	0	29.6218	-0.4667	-29.5910	-0.6229;
	12	304	0.00231	0.021191	0.00751	320.29	0	0	1	0	1	0	0	89.4282	20.5816	-89.2556	-19.8413;
	12	441	0.001565	0.015025	0.00485	320.29	0	0	1	0	1	0	0	-156.2182	-30.0660	156.5687	32.8800;
	14	15	0.000208	0.01122	0	682	0	0	1	0	1	0	0	430.5005	63.7186	-430.1707	-45.9298;
	14	16	0.000326	0.01202	0	596	0	0	1	0	1	0	0	-443.9074	-42.2063	444.4500	62.2138;
	14	17	0.000279	0.01438	0	674	0	0	1	0	1	0	0	-443.8672	-33.1702	444.3299	57.0196;
	14	17	0.000354	0.01438	0	674	0	0	1	0	1	0	0	-443.9831	-30.8523	444.5701	54.6963;
	14	18	0.001417	0.05115	0	340	0	0	1	0	1	0	0	-157.3061	-5.4339	157.6000	16.0423;
	14	386	0.000317	0.004547	0.08136	1493.89	0	0	1	0	1	0	0	529.4587	24.1437	-528.7126	-23.1377;
	14	386	0.00032	0.00455	0.08136	1493.9	0	0	1	0	1	0	0	529.1046	23.8004	-528.3524	-22.8024;
	15	91	0.004799	0.046085	0.01488	320.29	0	0	1	0	1	0	0	62.3025	14.1995	-62.1355	-14.3377;
	15	230	0.010894	0.104607	0.03377	320.29	0	0	1	0	1	0	0	117.1155	-5.3878	-115.8486	13.5755;
	15	367	0.001918	0.018416	0.00594	320.29	0	0	1	0	1	0	0	171.3975	20.3095	-170.9132	-16.3571;
	15	369	0.001854	0.01701	0.00603	320.29	0	0	1	0	1	0	0	58.0198	14.9979	-57.9632	-15.1885;
	15	473	0.009225	0.084621	0.02999	320.29	0	0	1	0	1	0	0	21.3355	1.8107	-21.2989	-5.0009;
	19	20	0.000541	0.003886	0	7.53	0	0	1	0	1	0	0	4.5401	1.2107	-4.5400	-1.2100;
	19	112	0.004722	0.045345	0.01464	320.29	0	0	1	0	1	0	0	-20.4001	12.1932	20.4238	-13.6762;
	19	193	0.002221	0.021323	0.00688	320.29	0	0	1	0	1	0	0	-2.7129	15.5172	2.7178	-16.2743;
	19	272	0.002293	0.02202	0.00711	320.29	0	0	1	0	1	0	0	18.5729	-28.9211	-18.5503	28.3005;
	21	22	0.000587	0.003174	0	254.15	0	0	1	0	1	0	0	148.8213	40.3058	-148.7000	-39.6500;
	21	112	0.005092	0.048896	0.01578	320.29	0	0	1	0	1	0	0	51.0788	-18.2089	-50.9501	17.6195;
	21	196	0.002207	0.020247	0.00718	320.29	0	0	1	0	1	0	0	-199.9001	-22.0969	200.6756	28.3784;
	23	24	0.00033	0.01764	0	626	0	0	1	0	1	0	0	298.0008	77.1954	-297.7372	-63.1059;
	23	151	0.000182	0.002607	0.04665	1493.89	0	0	1	0	1	0	0	70.6826	-47.4384	-70.6719	42.0525;
	23	386	0.001642	0.023851	0.41623	1493.89	0	0	1	0	1	0	0	-244.9104	-7.2175	245.7447	-30.1004;
	23	464	0.000947	0.012532	0.26411	1493.89	0	0	1	0	1	0	0	-14.6076	-16.6069	14.6093	-14.7122;
	23	471	0.000532	0.007041	0.14837	1493.89	0	0	1	0	1	0	0	-109.1654	-5.9326	109.2189	-10.9689;
	24	25	0.000613	0.003629	0	3.56	0	0	1	0	1	0	0	2.2800	0.6102	-2.2800	-0.6100;
	24	26	0.000563	0.003729	0	29.46	0	0	1	0	1	0	0	21.6624	5.7962	-21.6600	-5.7800;
	24	210	0.002218	0.020344	0.00721	320.29	0	0	1	0	1	0	0	124.1311	32.7788	-123.8153	-30.7120;
	24	360	0.002365	0.022714	0.00733	320.29	0	0	1	0	1	0	0	149.6636	23.9208	-149.1948	-20.2614;
	27	28	0.000687	0.003963	0	108.61	0	0	1	0	1	0	0	62.9548	16.9232	-62.9300	-16.7800;
	27	68	0.005607	0.053845	0.01738	320.29	0	0	1	0	1	0	0	-96.5375	28.3228	97.0228	-25.6912;
	27	382	0.00337	0.030912	0.01095	320.29	0	0	1	0	1	0	0	33.5827	13.5692	-33.5446	-14.5018;
	29	30	0.000616	0.003298	0	156.98	0	0	1	0	1	0	0	100.0271	26.9659	-99.9700	-26.6600;
	29	454	0.00247	0.022656	0.00803	320.29	0	0	1	0	1	0	0	-113.9115	-7.9073	114.1896	9.5260;
	29	491	0.005607	0.053837	0.01738	320.29	0	0	1	0	1	0	0	13.8843	-19.0587	-13.8592	17.2735;
	31	32	0.000625	0.003429	0	15.7	0	0	1	0	1	0	0	9.7605	2.6029	-9.7600	-2.6000;
	31	85	0.005303	0.050926	0.01644	320.29	0	0	1	0	1	0	0	-41.4044	20.4433	41.4996	-21.5037;
	31	104	0.005526	0.053062	0.01713	320.29	0	0	1	0	1	0	0	16.4570	27.0059	-16.4088	-28.5882;
	31	189	0.005707	0.0548	0.01769	320.29	0	0	1	0	1	0	0	4.9335	8.0806	-4.9284	-10.1628;
	31	205	0.007797	0.074869	0.02417	320.29	0	0	1	0	1	0	0	-7.4075	16.4219	7.4316	-19.0839;
	31	218	0.008273	0.079446	0.02565	320.29	0	0	1	0	1	0	0	-32.0845	13.3707	32.1701	-15.6295;
	31	267	0.004897	0.047021	0.01518	320.29	0	0	1	0	1	0	0	49.7452	33.0747	-49.5983	-33.4734;
	33	34	0.000624	0.003284	0	43.35	0	0	1	0	1	0	0	25.0036	6.6892	-25.0000	-6.6700;
	33	83	0.005287	0.050764	0.01639	320.29	0	0	1	0	1	0	0	13.6153	1.2822	-13.6065	-3.0761;
	33	112	0.007061	0.067808	0.02189	320.29	0	0	1	0	1	0	0	-38.6189	-7.9713	38.7135	6.3501;
	35	36	0.000583	0.00303	0	62.87	0	0	1	0	1	0	0	43.3600	11.6120	-43.3500	-11.5600;
	35	191	0.004038	0.037042	0.01313	320.29	0	0	1	0	1	0	0	-6.8134	-7.3263	6.8165	5.8106;
	35	399	0.005636	0.054123	0.01747	320.29	0	0	1	0	1	0	0	-36.5466	-4.2858	36.6113	2.8504;
	37	38	0.000546	0.003823	0	0.18	0	0	1	0	1	0	0	0.1300	0.0300	-0.1300	-0.0300;
	37	76	0.001474	0.014156	0.00457	320.29	0	0	1	0	1	0	0	-109.2612	15.9246	109.4172	-14.9522;
	37	176	0.003039	0.02918	0.00942	320.29	0	0	1	0	1	0	0	109.1312	-15.9546	-108.8108	17.9435;
	39	40	0.0007	0.02531	0	428	0	0	1	0	1	0	0	88.2355	23.6166	-88.1864	-21.8416;
	39	332	0.000403	0.005786	0.10355	1493.89	0	0	1	0	1	0	0	-23.2356	6.2688	23.2379	-18.5478;
	39	428	0.000521	0.006898	0.14538	1493.89	0	0	1	0	1	0	0	-65.0000	-29.8853	65.0204	12.8343;
	40	41	0.000631	0.003923	0	97.47	0	0	1	0	1	0	0	58.0093	15.5803	-57.9900	-15.4600;
	40	131	0.002909	0.026681	0.00946	320.29	0	0	1	0	1	0	0	30.1771	6.2613	-30.1534	-7.1552;
	42	43	0.000542	0.003119	0	7.7	0	0	1	0	1	0	0	4.4601	1.1906	-4.4600	-1.1900;
	42	81	0.002361	0.02166	0.00768	320.29	0	0	1	0	1	0	0	-71.6624	-0.4681	71.7646	0.4931;
	42	191	0.006368	0.05842	0.0207	320.29	0	0	1	0	1	0	0	67.2023	-0.7225	-66.9599	0.4987;
	44	45	0.000637	0.003876	0	2.84	0	0	1	0	1	0	0	2.0300	0.5401	-2.0300	-0.5400;
	44	200	0.002105	0.019311	0.00684	320.29	0	0	1	0	1	0	0	-38.2086	-7.5061	38.2359	6.9574;
	46	47	0.000602	0.003454	0	63	0	0	1	0	1	0	0	43.4206	11.6410	-43.4100	-11.5800;
	46	156	0.006611	0.063482	0.02049	320.29	0	0	1	0	1	0	0	41.3052	18.6160	-41.1840	-19.7663;
	46	238	0.003134	0.030093	0.00971	320.29	0	0	1	0	1	0	0	-84.7258	-30.2570	84.9466	31.2543;
	48	49	0.01331	0.27853	0	57	0	0	1	0	1	0	0	-1.2998	-0.6050	1.3000	0.6100;
	48	50	0.00715	0.16356	0	70	0	0	1	0	1	0	0	-2.5995	-1.1984	2.6000	1.2100;
	48	51	0.000658	0.003672	0	0.56	0	0	1	0	1	0	0	0.3500	0.0900	-0.3500	-0.0900;
	48	52	0.00062	0.003342	0	37.95	0	0	1	0	1	0	0	23.3931	6.2569	-23.3900	-6.2400;
	48	358	0.0045	0.041283	0.01463	320.29	0	0	1	0	1	0	0	2.2817	-7.6403	-2.2797	5.9618;
	48	419	0.004637	0.044525	0.01437	320.29	0	0	1	0	1	0	0	-22.1256	3.0968	22.1459	-4.5643;
	53	54	0.00068	0.003061	0	51.27	0	0	1	0	1	0	0	34.8175	9.3140	-34.8100	-9.2800;
	53	233	0.002362	0.021667	0.00768	320.29	0	0	1	0	1	0	0	-97.9416	4.8554	98.1357	-3.9760;
	53	276	0.001502	0.014424	0.00466	320.29	0	0	1	0	1	0	0	63.1241	-14.1693	-63.0705	14.1376;
	55	56	0.000641	0.00331	0	3.15	0	0	1	0	1	0	0	2.2500	0.6002	-2.2500	-0.6000;
	55	66	0.00433	0.041575	0.01342	320.29	0	0	1	0	1	0	0	-36.9271	-1.3228	36.9772	0.2174;
	55	500	0.004481	0.041102	0.01457	320.29	0	0	1	0	1	0	0	34.6771	0.7226	-34.6313	-2.0188;
	57	58	0.00012	0.01762	0	675	0	0	1	0	1	0	0	283.1793	43.8626	-283.0945	-31.4177;
	57	58	0.00012	0.01762	0	675	0	0	1	0	1	0	0	283.1793	43.8626	-283.0945	-31.4177;
	57	123	0.001682	0.024427	0.42627	1493.89	0	0	1	0	1	0	0	-439.3701	-40.6615	442.1666	31.0228;
	57	440	0.000601	0.008726	0.15227	1493.89	0	0	1	0	1	0	0	-126.9885	-47.0637	127.0794	30.6172;
	58	59	0.00062	0.003848	0	252.93	0	0	1	0	1	0	0	141.0553	38.2957	-140.9400	-37.5800;
	58	253	0.004532	0.04352	0.01405	320.29	0	0	1	0	1	0	0	95.2516	16.1384	-94.8823	-14.1907;
	58	322	0.002019	0.019385	0.00626	320.29	0	0	1	0	1	0	0	164.9625	4.2033	-164.4838	-0.3241;
	58	322	0.00202	0.01939	0.00626	320.3	0	0	1	0	1	0	0	164.9196	4.1981	-164.4410	-0.3201;
	60	61	0.000529	0.003518	0	0.32	0	0	1	0	1	0	0	0.2000	0.0500	-0.2000	-0.0500;
	60	131	0.001985	0.018208	0.00645	320.29	0	0	1	0	1	0	0	-12.9838	-1.5809	12.9866	0.8520;
	60	466	0.002011	0.019314	0.00623	320.29	0	0	1	0	1	0	0	12.7838	1.5309	-12.7809	-2.2323;
	62	63	0.0032	0.16353	0	70	0	0	1	0	1	0	0	0.0000	0.0000	0.0000	-0.0000;
	62	64	0.000661	0.003274	0	45.58	0	0	1	0	1	0	0	34.7874	9.3067	-34.7800	-9.2700;
	62	287	0.005453	0.052365	0.0169	320.29	0	0	1	0	1	0	0	21.4996	-14.0042	-21.4698	12.3274;
	62	457	0.007267	0.069786	0.02253	320.29	0	0	1	0	1	0	0	-68.4064	-9.7912	68.7051	10.0290;
	65	66	0.000808	0.03088	0	405	0	0	1	0	1	0	0	100.6703	8.0157	-100.6011	-5.3679;
	65	80	0.00096	0.013773	0.24648	1493.89	0	0	1	0	1	0	0	-60.0361	-41.2984	60.0710	12.3751;
	65	297	0.00092	0.013192	0.23607	1493.89	0	0	1	0	1	0	0	-40.6342	33.2827	40.6643	-60.7925;
	66	67	0.000661	0.003359	0	6.71	0	0	1	0	1	0	0	4.5701	1.2206	-4.5700	-1.2200;
	66	308	0.00718	0.06895	0.02226	320.29	0	0	1	0	1	0	0	59.0538	3.9298	-58.8406	-4.5014;
	68	69	0.000669	0.003998	0	27.64	0	0	1	0	1	0	0	16.9618	4.5306	-16.9600	-4.5200;
	68	295	0.004469	0.040995	0.01453	320.29	0	0	1	0	1	0	0	-61.5772	11.6054	61.7295	-11.8880;
	68	314	0.001805	0.017334	0.0056	320.29	0	0	1	0	1	0	0	-52.4074	9.5552	52.4517	-9.7776;
	70	71	0.00103	0.04472	0	133	0	0	1	0	1	0	0	-3.9998	-1.5327	4.0000	1.5400;
	70	72	0.00292	0.14481	0	60	0	0	1	0	1	0	0	-1.9999	-0.7641	2.0000	0.7700;
	70	73	0.012696	0.27303	0	49	0	0	1	0	1	0	0	-1.3997	-0.5346	1.4000	0.5400;
	70	216	0.002596	0.02381	0.00844	320.29	0	0	1	0	1	0	0	25.5457	13.3804	-25.5264	-14.1575;
	70	490	0.002127	0.019512	0.00691	320.29	0	0	1	0	1	0	0	-18.1462	-10.5489	18.1543	9.8376;
	74	75	0.000584	0.003339	0	8.81	0	0	1	0	1	0	0	5.3001	1.4108	-5.3000	-1.4100;
	74	189	0.005632	0.054084	0.01746	320.29	0	0	1	0	1	0	0	9.1493	-8.4328	-9.1428	6.4074;
	74	240	0.004434	0.04067	0.01441	320.29	0	0	1	0	1	0	0	-14.4495	7.0220	14.4596	-8.6442;
	76	77	0.000695	0.003313	0	12.16	0	0	1	0	1	0	0	6.9503	1.8515	-6.9500	-1.8500;
	76	452	0.002012	0.019322	0.00624	320.29	0	0	1	0	1	0	0	-116.3675	13.1007	116.6074	-11.5157;
	78	79	0.000622	0.003279	0	0.52	0	0	1	0	1	0	0	0.3800	0.1000	-0.3800	-0.1000;
	78	328	0.005432	0.049829	0.01766	320.29	0	0	1	0	1	0	0	158.0239	9.0253	-156.8566	-0.3581;
	78	387	0.002354	0.022609	0.0073	320.29	0	0	1	0	1	0	0	-158.4039	-9.1254	158.9117	13.1462;
	80	81	0.00065	0.03481	0	529	0	0	1	0	1	0	0	137.2850	11.7089	-137.1820	-6.1927;
	80	82	0.00043	0.03113	0	628	0	0	1	0	1	0	0	-361.4311	2.6983	361.9000	31.2484;
	80	407	0.000818	0.010825	0.22813	1493.89	0	0	1	0	1	0	0	164.0751	-26.7823	-163.8901	1.8955;
	81	149	0.002879	0.02641	0.00936	320.29	0	0	1	0	1	0	0	65.4174	5.6996	-65.3129	-5.8518;
	83	84	0.000638	0.003655	0	105.41	0	0	1	0	1	0	0	61.4326	16.5093	-61.4100	-16.3800;
	83	342	0.004116	0.03952	0.01276	320.29	0	0	1	0	1	0	0	-47.8260	-13.4331	47.9141	12.8100;
	85	86	0.000652	0.003901	0	30.04	0	0	1	0	1	0	0	17.5918	4.7008	-17.5900	-4.6900;
	85	272	0.004412	0.04047	0.01434	320.29	0	0	1	0	1	0	0	-59.0914	16.8028	59.2321	-17.2172;
	87	88	0.000623	0.003569	0	7.69	0	0	1	0	1	0	0	5.2502	1.4009	-5.2500	-1.4000;
	87	141	0.001846	0.017727	0.00572	320.29	0	0	1	0	1	0	0	319.2204	-26.1543	-317.5414	41.6322;
	87	143	0.00382	0.035043	0.01242	320.29	0	0	1	0	1	0	0	-291.4559	-6.7817	294.3345	31.7666;
	87	423	0.001836	0.017627	0.00569	320.29	0	0	1	0	1	0	0	-33.0147	31.5350	33.0489	-31.8448;
	89	90	0.000554	0.003864	0	10.48	0	0	1	0	1	0	0	5.9002	1.5712	-5.9000	-1.5700;
	89	187	0.002116	0.020322	0.00656	320.29	0	0	1	0	1	0	0	34.3551	-0.6073	-34.3338	0.0430;
	89	457	0.009012	0.082666	0.02929	320.29	0	0	1	0	1	0	0	-40.2553	-0.9639	40.3799	-1.3384;
	91	92	0.000572	0.003617	0	104.24	0	0	1	0	1	0	0	65.0523	17.4813	-65.0300	-17.3400;
	91	133	0.00504	0.048401	0.01562	320.29	0	0	1	0	1	0	0	-2.9169	-3.1436	2.9175	1.3333;
	93	94	0.000536	0.003281	0	8.18	0	0	1	0	1	0	0	5.2101	1.3908	-5.2100	-1.3900;
	93	269	0.003921	0.035965	0.01275	320.29	0	0	1	0	1	0	0	41.8416	-9.9161	-41.7788	9.0283;
	93	336	0.005795	0.053155	0.01884	320.29	0	0	1	0	1	0	0	-47.0517	8.5252	47.1683	-9.6111;
	95	96	0.000563	0.003253	0	56.18	0	0	1	0	1	0	0	34.0060	9.1047	-34.0000	-9.0700;
	95	170	0.002111	0.020268	0.00654	320.29	0	0	1	0	1	0	0	12.2814	0.4557	-12.2786	-1.1890;
	95	369	0.004094	0.039316	0.01269	320.29	0	0	1	0	1	0	0	-46.2874	-9.5604	46.3656	8.8298;
	97	98	0.000569	0.003986	0	66.43	0	0	1	0	1	0	0	37.0972	9.9403	-37.0900	-9.8900;
	97	181	0.002992	0.028734	0.00928	320.29	0	0	1	0	1	0	0	-15.2258	-26.6586	15.2492	25.7900;
	97	358	0.002676	0.024552	0.0087	320.29	0	0	1	0	1	0	0	-21.8714	16.7183	21.8891	-17.5702;
	99	100	0.000644	0.00362	0	22.69	0	0	1	0	1	0	0	13.5211	3.6160	-13.5200	-3.6100;
	99	101	0.000699	0.003294	0	1.37	0	0	1	0	1	0	0	0.8900	0.2400	-0.8900	-0.2400;
	99	465	0.002689	0.02582	0.00834	320.29	0	0	1	0	1	0	0	-9.3562	-5.4804	9.3588	4.5242;
	99	472	0.003318	0.031864	0.01029	320.29	0	0	1	0	1	0	0	-5.0549	1.6244	5.0557	-2.8242;
	102	103	0.000614	0.003874	0	64.6	0	0	1	0	1	0	0	38.8086	10.4041	-38.8000	-10.3500;
	102	308	0.00565	0.054254	0.01751	320.29	0	0	1	0	1	0	0	-66.2086	-6.1584	66.4243	6.1944;
	102	419	0.003638	0.034938	0.01128	320.29	0	0	1	0	1	0	0	27.4000	-4.2458	-27.3760	3.1734;
	104	105	0.000673	0.003751	0	144.23	0	0	1	0	1	0	0	80.3696	21.6405	-80.3300	-21.4200;
	104	191	0.005177	0.047485	0.01683	320.29	0	0	1	0	1	0	0	-63.9608	6.9477	64.1432	-7.2578;
	106	107	0.000575	0.003206	0	24.46	0	0	1	0	1	0	0	16.0113	4.2775	-16.0100	-4.2700;
	106	191	0.004468	0.042904	0.01385	320.29	0	0	1	0	1	0	0	41.6335	-6.0851	-41.5667	5.0952;
	106	236	0.003115	0.029915	0.00966	320.29	0	0	1	0	1	0	0	-57.6448	1.8076	57.7329	-2.1005;
	108	109	0.000658	0.00301	0	62.91	0	0	1	0	1	0	0	47.5938	12.7530	-47.5800	-12.6900;
	108	472	0.002033	0.019521	0.0063	320.29	0	0	1	0	1	0	0	-97.3753	-22.0754	97.5497	23.0139;
	108	495	0.003611	0.034672	0.01119	320.29	0	0	1	0	1	0	0	49.7816	9.3224	-49.7014	-9.8456;
	110	111	0.000527	0.003708	0	87.02	0	0	1	0	1	0	0	62.3083	16.7390	-62.2900	-16.6100;
	110	274	0.003126	0.030018	0.00969	320.29	0	0	1	0	1	0	0	49.6429	1.4577	-49.5784	-1.9951;
	110	316	0.003439	0.033025	0.01066	320.29	0	0	1	0	1	0	0	-111.9513	41.6050	112.3630	-38.9166;
	112	113	0.000644	0.003119	0	72.98	0	0	1	0	1	0	0	46.0026	12.3208	-45.9900	-12.2600;
	112	193	0.002867	0.027534	0.00889	320.29	0	0	1	0	1	0	0	31.4394	-9.3781	-31.4131	8.5955;
	112	236	0.006329	0.060777	0.01962	320.29	0	0	1	0	1	0	0	1.5815	-15.2222	-1.5705	13.0288;
	112	283	0.008619	0.08276	0.02672	320.29	0	0	1	0	1	0	0	11.6071	-6.2103	-11.5955	3.2065;
	112	372	0.002007	0.019267	0.00622	320.29	0	0	1	0	1	0	0	-152.4361	-4.7145	152.8374	7.8414;
	112	499	0.005577	0.051155	0.01813	320.29	0	0	1	0	1	0	0	53.6184	12.9109	-53.4712	-13.6511;
	114	115	0.000506	0.00336	0	6.74	0	0	1	0	1	0	0	5.0601	1.3508	-5.0600	-1.3500;
	114	116	0.000505	0.003411	0	5.26	0	0	1	0	1	0	0	3.1000	0.8303	-3.1000	-0.8300;
	114	191	0.005557	0.053364	0.01723	320.29	0	0	1	0	1	0	0	-17.9314	0.3557	17.9467	-2.2393;
	114	312	0.006609	0.063462	0.02049	320.29	0	0	1	0	1	0	0	9.7712	-2.5368	-9.7658	0.1751;
	117	118	0.000634	0.003851	0	12.8	0	0	1	0	1	0	0	8.8305	2.3628	-8.8300	-2.3600;
	117	426	0.003172	0.029099	0.01031	320.29	0	0	1	0	1	0	0	-56.8632	-19.6604	56.9622	19.3735;
	117	490	0.002999	0.027508	0.00975	320.29	0	0	1	0	1	0	0	48.0327	17.2976	-47.9643	-17.7876;
	119	120	0.000556	0.003059	0	46.58	0	0	1	0	1	0	0	31.6553	8.4693	-31.6500	-8.4400;
	119	129	0.00235	0.021554	0.00764	320.29	0	0	1	0	1	0	0	41.6666	7.3471	-41.6289	-7.8552;
	119	253	0.001494	0.01435	0.00463	320.29	0	0	1	0	1	0	0	-73.3219	-15.8165	73.3968	16.0161;
	121	122	0.000555	0.003846	0	70.42	0	0	1	0	1	0	0	53.3745	14.3308	-53.3600	-14.2300;
	121	276	0.002548	0.024463	0.0079	320.29	0	0	1	0	1	0	0	-16.6388	-15.6316	16.6499	14.8144;
	121	287	0.007088	0.068058	0.02197	320.29	0	0	1	0	1	0	0	-36.7357	1.3008	36.8182	-3.0707;
	123	124	0.0002	0.01438	0	488	0	0	1	0	1	0	0	90.3092	13.6347	-90.2952	-12.6310;
	123	125	0.00028	0.04064	0	346	0	0	1	0	1	0	0	-0.0000	0.0000	-0.0000	0.0000;
	123	126	0.00015	0.02189	0	352	0	0	1	0	1	0	0	0.0000	-0.0000	0.0000	-0.0000;
...
];

%% generator cost data
%	2	startup	shutdown	n	c(n-1)	...	c0
%	Using quadratic cost curves only
mpc.gencost = [
	2	0	0	3	0.002	19	1424.48;
	2	0	0	3	0	5.867	1266.47;
	2	0	0	3	0	8.412	1319.13;
	2	0	0	3	0	9.275	1076.21;
	2	0	0	3	0.002	19	236.03;
	2	0	0	3	0.002	19	236.07;
	2	0	0	3	0.002	23.152	604.8;
	2	0	0	3	0	0	0;
	2	0	0	3	0	0	0;
	2	0	0	3	0	0	0;
	2	0	0	3	0	0	0;
	2	0	0	3	0	0	0;
	2	0	0	3	0	0	0;
	2	0	0	3	0	0	0;
	2	0	0	3	0	0	0;
	2	0	0	3	0	6.87	1363.88;
	2	0	0	3	0	8.143	1060.19;
	2	0	0	3	0	0	0;
	2	0	0	3	0	0	0;
	2	0	0	3	0	0	0;
	2	0	0	3	0.002	19	1081.02;
	2	0	0	3	0.002	19	879.08;
	2	0	0	3	0	0	0;
	2	0	0	3	0	0	0;
	2	0	0	3	0	0	0;
	2	0	0	3	0	0	0;
	2	0	0	3	0.002	19	236.08;
	2	0	0	3	0.002	24.033	799.8;
	2	0	0	3	0.002	24.033	799.8;
	2	0	0	3	0.002	26.742	2763.98;
	2	0	0	3	0.002	19	236.11;
	2	0	0	3	0.002	19	236.09;
	2	0	0	3	0.002	19	236.08;
	2	0	0	3	0.002	19	236.14;
	2	0	0	3	0.002	19	236.03;
	2	0	0	3	0.002	23.396	658.8;
	2	0	0	3	0.002	23.202	615.9;
	2	0	0	3	0.002	23.816	751.8;
	2	0	0	3	0.002	19	236.08;
	2	0	0	3	0.002	19	236.08;
	2	0	0	3	0	0	0;
	2	0	0	3	0	0	0;
	2	0	0	3	0	0	0;
	2	0	0	3	0	0	0;
	2	0	0	3	0	0	0;
	2	0	0	3	0	0	0;
	2	0	0	3	0	0	0;
	2	0	0	3	0.002	23.141	602.4;
	2	0	0	3	0.002	23.205	616.5;
	2	0	0	3	0.002	23.152	604.8;
	2	0	0	3	0.002	23.198	615;
	2	0	0	3	0.002	24.305	859.99;
	2	0	0	3	0.002	24.305	859.99;
	2	0	0	3	0.002	24.305	859.99;
	2	0	0	3	0.002	23.919	774.6;
	2	0	0	3	0.002	23.919	774.6;
	2	0	0	3	0.002	23.919	774.6;
	2	0	0	3	0.002	23.919	774.6;
	2	0	0	3	0.002	23.919	774.6;
	2	0	0	3	0.002	23.808	750;
	2	0	0	3	0.002	24.059	805.42;
	2	0	0	3	0.002	24.059	805.42;
	2	0	0	3	0.002	24.059	805.42;
	2	0	0	3	0.002	24.059	805.42;
	2	0	0	3	0.002	23.883	766.65;
	2	0	0	3	0	0	0;
	2	0	0	3	0	0	0;
	2	0	0	3	0	0	0;
	2	0	0	3	0	0	0;
	2	0	0	3	0	0	0;
	2	0	0	3	0	0	0;
	2	0	0	3	0	0	0;
	2	0	0	3	0	0	0;
	2	0	0	3	0	0	0;
	2	0	0	3	0	0	0;
	2	0	0	3	0.002	23.862	762;
	2	0	0	3	0.002	24.316	862.5;
	2	0	0	3	0.002	23.152	604.95;
	2	0	0	3	0.002	24.641	934.24;
	2	0	0	3	0.002	26.152	1344.19;
	2	0	0	3	0	0	0;
	2	0	0	3	0.002	19	236.19;
	2	0	0	3	0	0	0;
	2	0	0	3	0	0	0;
	2	0	0	3	0	0	0;
	2	0	0	3	0	0	0;
	2	0	0	3	0	0	0;
	2	0	0	3	0.002	19	236.15;
	2	0	0	3	0	0	0;
	2	0	0	3	0	0	0;
];

%% generator fuel type
mpc.genfuel = {
	"coal";
	"nuclear";
	"nuclear";
	"nuclear";
	"coal";
	"coal";
	"ng";
	"hydro";
	"hydro";
	"hydro";
	"hydro";
	"hydro";
	"hydro";
	"hydro";
	"hydro";
	"nuclear";
	"nuclear";
	"hydro";
	"hydro";
	"hydro";
	"coal";
	"coal";
	"hydro";
	"hydro";
	"hydro";
	"hydro";
	"coal";
	"ng";
	"ng";
	"ng";
	"coal";
	"coal";
	"coal";
	"coal";
	"coal";
	"ng";
	"ng";
	"ng";
	"coal";
	"coal";
	"hydro";
	"hydro";
	"hydro";
	"hydro";
	"hydro";
	"hydro";
	"hydro";
	"ng";
	"ng";
	"ng";
	"ng";
	"ng";
	"ng";
	"ng";
	"ng";
	"ng";
	"ng";
	"ng";
	"ng";
	"ng";
	"ng";
	"ng";
	"ng";
	"ng";
	"ng";
	"hydro";
	"hydro";
	"hydro";
	"hydro";
	"hydro";
	"hydro";
	"hydro";
	"hydro";
	"hydro";
	"hydro";
	"ng";
	"ng";
	"ng";
	"ng";
	"ng";
	"solar";
	"coal";
	"hydro";
	"hydro";
	"hydro";
	"hydro";
	"hydro";
	"coal";
	"hydro";
	"hydro";

};

%% summary data
mpc.summary_stats = [
%	Nbus	Ngen	NgenON	Nline	NlineON	Nload	GenPCap	GenTotalP	GenTotalQ	GenPCapON	LoadTotP	LoadTotalQ	LoadShedP	LoadShedQ
	500	90	56	597	597	200	12188.94	7832.26251	1118.61871	8863.65	7750.66	2066.83	0	0
];

%% solve time
mpc.solve_time = 0.090055;
